*Heading
** Job name: 100-0-UMAT-implicit-SC8R-exp Model name: 100-0-UMAT-implict-SC8R
** Generated by: Abaqus/CAE 6.13-1
*Preprint, echo=NO, model=NO, history=NO, contact=NO
**
** PARTS
**
*Part, name=Part-1
*Node
      1,         240.,         160.,   1.58000004
      2,         240.,           0.,   1.58000004
      3,         240.,           0.,           0.
      4,         240.,         160.,           0.
      5,         210.,          80.,   1.58000004
      6,         210.,           0.,   1.58000004
      7,         210.,           0.,           0.
      8,         210.,         160.,           0.
      9,         210.,         160.,   1.58000004
     10,          30.,           0.,   1.58000004
     11,          30.,           0.,           0.
     12,          30.,         160.,           0.
     13,          30.,          80.,   1.58000004
     14,          30.,         160.,   1.58000004
     15,           0.,           0.,           0.
     16,           0.,         160.,           0.
     17,           0.,         160.,   1.58000004
     18,           0.,           0.,   1.58000004
     19,   180.003448,          80.,   1.58000004
     20,         120.,   19.9965496,   1.58000004
** ... 12424 like lines cut
*Element, type=SC8R
  1,  280, 1587, 2357,  253,    1,   34,  143,    4
  2, 1587, 1588, 2358, 2357,   34,   35,  142,  143
  3, 1588, 1589, 2359, 2358,   35,   36,  141,  142
  4, 1589, 1590, 2360, 2359,   36,   37,  140,  141
  5, 1590, 1591, 2361, 2360,   37,   38,  139,  140
  6, 1591, 1592, 2362, 2361,   38,   39,  138,  139
  7, 1592, 1593, 2363, 2362,   39,   40,  137,  138
  8, 1593, 1594, 2364, 2363,   40,   41,  136,  137
  9, 1594, 1595, 2365, 2364,   41,   42,  135,  136
 10, 1595, 1596, 2366, 2365,   42,   43,  134,  135
 11, 1596, 1597, 2367, 2366,   43,   44,  133,  134
 12, 1597, 1598, 2368, 2367,   44,   45,  132,  133
 13, 1598, 1599, 2369, 2368,   45,   46,  131,  132
 14, 1599, 1600, 2370, 2369,   46,   47,  130,  131
 15, 1600, 1601, 2371, 2370,   47,   48,  129,  130
 16, 1601, 1602, 2372, 2371,   48,   49,  128,  129
 17, 1602, 1603, 2373, 2372,   49,   50,  127,  128
 18, 1603, 1604, 2374, 2373,   50,   51,  126,  127
 19, 1604, 1605, 2375, 2374,   51,   52,  125,  126
 20, 1605, 1606, 2376, 2375,   52,   53,  124,  125
** ... 5963 like lines cut
*Nset, nset=geometry-load
    1,    2,    3,    4,    5,    6,    7,    8,    9,   34,   35,   36,   37,   38,   39,   40
   41,   42,   43,   44,   45,   46,   47,   48,   49,   50,   51,   52,   53,   54,   55,   56
   57,   58,   59,   60,   61,   62,   63,   64,   65,   66,   67,   68,   69,   70,   71,   72
   73,   74,   75,   76,   77,   78,   79,   80,   81,   82,   83,   84,   85,   86,   87,   88
   89,   90,   91,   92,   93,   94,   95,   96,   97,   98,   99,  100,  101,  102,  103,  104
  105,  106,  107,  108,  109,  110,  111,  112,  113,  114,  115,  116,  117,  118,  119,  120
  121,  122,  123,  124,  125,  126,  127,  128,  129,  130,  131,  132,  133,  134,  135,  136
  137,  138,  139,  140,  141,  142,  143,  144,  145,  146,  147,  148,  149,  150,  151,  152
  153,  154,  155,  156,  157,  158,  159,  160,  161,  162,  163,  164,  165,  166,  167,  168
  169,  170,  171,  172,  173,  174,  175,  176,  177,  178,  179,  180,  181,  182,  183,  184
  185,  186,  187,  188,  189,  190,  191,  192,  193,  194,  195,  196,  197,  198,  199,  200
  201,  202,  203,  204,  205,  206,  207,  208,  209,  210,  211,  212,  213,  214,  215,  216
  217,  218,  219,  220,  221,  222,  223,  224,  225,  226,  227,  228,  229,  230,  231,  232
  233,  234,  235,  236,  237,  238,  239,  240,  241,  242,  243,  244,  245,  246,  247,  248
  249,  250,  251,  252,  253,  254,  255,  256,  257,  258,  259,  260,  261,  262,  263,  264
  265,  266,  267,  268,  269,  270,  271,  272,  273,  274,  275,  276,  277,  278,  279,  280
  281,  282,  283,  284,  285,  286,  287,  288,  289,  290,  291,  292,  293,  294,  295,  296
  297,  298,  299,  300,  301,  302,  303,  304,  305,  306,  307,  308, 1587, 1588, 1589, 1590
 1591, 1592, 1593, 1594, 1595, 1596, 1597, 1598, 1599, 1600, 1601, 1602, 1603, 1604, 1605, 1606
 1607, 1608, 1609, 1610, 1611, 1612, 1613, 1614, 1615, 1616, 1617, 1618, 1619, 1620, 1621, 1622
** ... 94 like lines cut
*Elset, elset=geometry-load, generate
   1,  840,    1
** Region: (CompositeLayup-1-1: Generated From Layup), (Controls:EC-1)
*Elset, elset=CompositeLayup-1-1-1
    1,    2,    3,    4,    5,    6,    7,    8,    9,   10,   11,   12,   13,   14,   15,   16
   17,   18,   19,   20,   21,   22,   23,   24,   25,   26,   27,   28,   29,   30,   31,   32
   33,   34,   35,   36,   37,   38,   39,   40,   41,   42,   43,   44,   45,   46,   47,   48
   49,   50,   51,   52,   53,   54,   55,   56,   57,   58,   59,   60,   61,   62,   63,   64
   65,   66,   67,   68,   69,   70,   71,   72,   73,   74,   75,   76,   77,   78,   79,   80
   81,   82,   83,   84,   85,   86,   87,   88,   89,   90,   91,   92,   93,   94,   95,   96
   97,   98,   99,  100,  101,  102,  103,  104,  105,  106,  107,  108,  109,  110,  111,  112
  113,  114,  115,  116,  117,  118,  119,  120,  121,  122,  123,  124,  125,  126,  127,  128
  129,  130,  131,  132,  133,  134,  135,  136,  137,  138,  139,  140,  141,  142,  143,  144
  145,  146,  147,  148,  149,  150,  151,  152,  153,  154,  155,  156,  157,  158,  159,  160
  161,  162,  163,  164,  165,  166,  167,  168,  169,  170,  171,  172,  173,  174,  175,  176
  177,  178,  179,  180,  181,  182,  183,  184,  185,  186,  187,  188,  189,  190,  191,  192
  193,  194,  195,  196,  197,  198,  199,  200,  201,  202,  203,  204,  205,  206,  207,  208
  209,  210,  211,  212,  213,  214,  215,  216,  217,  218,  219,  220,  221,  222,  223,  224
  225,  226,  227,  228,  229,  230,  231,  232,  233,  234,  235,  236,  237,  238,  239,  240
  241,  242,  243,  244,  245,  246,  247,  248,  249,  250,  251,  252,  253,  254,  255,  256
  257,  258,  259,  260,  261,  262,  263,  264,  265,  266,  267,  268,  269,  270,  271,  272
  273,  274,  275,  276,  277,  278,  279,  280,  281,  282,  283,  284,  285,  286,  287,  288
  289,  290,  291,  292,  293,  294,  295,  296,  297,  298,  299,  300,  301,  302,  303,  304
  305,  306,  307,  308,  309,  310,  311,  312,  313,  314,  315,  316,  317,  318,  319,  320
** ... 307 like lines cut
** Section: CompositeLayup-1-1
*Shell Section, elset=CompositeLayup-1-1-1, composite, controls=EC-1, poisson=0.3, thickness modulus=9600., stack direction=3, 
layup=CompositeLayup-1
0.158, 3, Material-1, 0., Ply-1
0.158, 3, Material-1, 0., Ply-2
0.158, 3, Material-1, 0., Ply-3
0.158, 3, Material-1, 0., Ply-4
0.158, 3, Material-1, 0., Ply-5
0.158, 3, Material-1, 0., Ply-6
0.158, 3, Material-1, 0., Ply-7
0.158, 3, Material-1, 0., Ply-8
0.158, 3, Material-1, 0., Ply-9
0.158, 3, Material-1, 0., Ply-10
*Transverse Shear
8558., 4792., 0.
*Hourglass Stiffness
1., , 1., 0.
** Region: (CompositeLayup-1-1: Generated From Layup), (Controls:Default)
*Elset, elset=CompositeLayup-1-1-2, generate
  841,  1599,     1
** Section: CompositeLayup-1-1
*Shell Section, elset=CompositeLayup-1-1-2, composite, poisson=0.3, thickness modulus=9600., stack direction=3, 
layup=CompositeLayup-1
0.158, 3, Material-1, 0., Ply-1
0.158, 3, Material-1, 0., Ply-2
0.158, 3, Material-1, 0., Ply-3
0.158, 3, Material-1, 0., Ply-4
0.158, 3, Material-1, 0., Ply-5
0.158, 3, Material-1, 0., Ply-6
0.158, 3, Material-1, 0., Ply-7
0.158, 3, Material-1, 0., Ply-8
0.158, 3, Material-1, 0., Ply-9
0.158, 3, Material-1, 0., Ply-10
*Transverse Shear
8558., 4792., 0.
*End Part
**  
**
** ASSEMBLY
**
*Assembly, name=Assembly
**  
*Instance, name=Part-1-1, part=Part-1
*End Instance
**  
*Node
      1,         240.,          80.,  0.790000021
*Nset, nset=geometry-fixed, instance=Part-1-1
   10,   13,   14,   17,   18,  377,  378,  379,  380,  381,  382,  383,  384,  385,  386,  387
  388,  389,  390,  391,  392,  393,  394,  395,  396,  397,  398,  399,  400,  401,  402,  403
  404,  405,  406,  407,  408,  409,  410,  411,  412,  413,  414,  415,  416,  417,  418,  419
  420,  421,  422,  423,  424,  425,  426,  427,  428,  429,  430,  431,  432,  433,  434,  435
  436,  437,  438,  439,  440,  441,  442,  443,  512,  513,  514,  515,  516,  517,  518,  519
  520,  521,  522,  523,  524,  525,  526,  527,  528,  529,  530,  531,  532,  533,  534,  535
  536,  537,  538,  539,  540,  541,  542,  543,  544,  545,  546,  547,  548,  549,  550,  551
  552,  553,  554,  555,  556,  557,  558,  559,  560,  561,  562,  563,  564,  565,  566,  567
  568,  569,  570,  571,  572,  573,  574,  575,  576,  577,  578,  579,  580,  581,  582,  583
  584,  585,  586,  587,  588,  589,  590,  591,  592,  593,  594,  595,  596,  597,  598,  599
 3127, 3128, 3129, 3130, 3131, 3132, 3133, 3134, 3135, 3136, 3137, 3138, 3139, 3140, 3141, 3142
 3143, 3144, 3145, 3146, 3147, 3148, 3149, 3150, 3151, 3152, 3153, 3154, 3155, 3156, 3157, 3158
 3159, 3160, 3161, 3162, 3163, 3164, 3165, 3166, 3167, 3168, 3169, 3170, 3171, 3172, 3173, 3174
 3175, 3176, 3177, 3178, 3179, 3180, 3181, 3182, 3183, 3184, 3185, 3186, 3187, 3188, 3189, 3190
 3191, 3192, 3193, 3194, 3195, 3196, 3197, 3198, 3199, 3200, 3201, 3202, 3203, 3204, 3205, 3206
 3207, 3208, 3209, 3210, 3211, 3212, 3213, 3214, 3215, 3216, 3217, 3218, 3219, 3220, 3221, 3222
 3223, 3224, 3225, 3226, 3227, 3228, 3229, 3230, 3231, 3232, 3233, 3234, 3235, 3236, 3237, 3238
 3239, 3240, 3241, 3242, 3243, 3244, 3245, 3246, 3247, 3248, 3249, 3250, 3251, 3252, 3253, 3254
 3255, 3256, 3257, 3258, 3259, 3260, 3261, 3262, 3263, 3264, 3265, 3266, 3267, 3268, 3269, 3270
 3271, 3272, 3273, 3274, 3275, 3276, 3277, 3278, 3279, 3280, 3281, 3282, 3283, 3284, 3285, 3286
** ... 33 like lines cut
*Elset, elset=geometry-fixed, instance=Part-1-1, generate
  841,  1599,     1
*Nset, nset=node-load, instance=Part-1-1
    1,    2,    3,    4,    5,    6,    7,    8,    9,   34,   35,   36,   37,   38,   39,   40
   41,   42,   43,   44,   45,   46,   47,   48,   49,   50,   51,   52,   53,   54,   55,   56
   57,   58,   59,   60,   61,   62,   63,   64,   65,   66,   67,   68,   69,   70,   71,   72
   73,   74,   75,   76,   77,   78,   79,   80,   81,   82,   83,   84,   85,   86,   87,   88
   89,   90,   91,   92,   93,   94,   95,   96,   97,   98,   99,  100,  101,  102,  103,  104
  105,  106,  107,  108,  109,  110,  111,  112,  113,  114,  115,  116,  117,  118,  119,  120
  121,  122,  123,  124,  125,  126,  127,  128,  129,  130,  131,  132,  133,  134,  135,  136
  137,  138,  139,  140,  141,  142,  143,  144,  145,  146,  147,  148,  149,  150,  151,  152
  153,  154,  155,  156,  157,  158,  159,  160,  161,  162,  163,  164,  165,  166,  167,  168
  169,  170,  171,  172,  173,  174,  175,  176,  177,  178,  179,  180,  181,  182,  183,  184
  185,  186,  187,  188,  189,  190,  191,  192,  193,  194,  195,  196,  197,  198,  199,  200
  201,  202,  203,  204,  205,  206,  207,  208,  209,  210,  211,  212,  213,  214,  215,  216
  217,  218,  219,  220,  221,  222,  223,  224,  225,  226,  227,  228,  229,  230,  231,  232
  233,  234,  235,  236,  237,  238,  239,  240,  241,  242,  243,  244,  245,  246,  247,  248
  249,  250,  251,  252,  253,  254,  255,  256,  257,  258,  259,  260,  261,  262,  263,  264
  265,  266,  267,  268,  269,  270,  271,  272,  273,  274,  275,  276,  277,  278,  279,  280
  281,  282,  283,  284,  285,  286,  287,  288,  289,  290,  291,  292,  293,  294,  295,  296
  297,  298,  299,  300,  301,  302,  303,  304,  305,  306,  307,  308, 1587, 1588, 1589, 1590
 1591, 1592, 1593, 1594, 1595, 1596, 1597, 1598, 1599, 1600, 1601, 1602, 1603, 1604, 1605, 1606
 1607, 1608, 1609, 1610, 1611, 1612, 1613, 1614, 1615, 1616, 1617, 1618, 1619, 1620, 1621, 1622
** ... 94 like lines cut
*Nset, nset=rp
 1,
*Nset, nset=_PickedSet14, internal
 1,
*Elset, elset=_s_Surf-1_S1, internal, instance=Part-1-1, generate
 5363,  5485,     1
*Surface, type=ELEMENT, name=s_Surf-1
_s_Surf-1_S1, S1
** Constraint: Constraint-1
*Equation
2
node-load, 1, 1.
rp, 1, -1.
*End Assembly
** 
** ELEMENT CONTROLS
** 
*Section Controls, name=EC-1, hourglass=STIFFNESS, VISCOSITY=1.
1., 1., 1.
*Amplitude, name=disp-amp, definition=SMOOTH STEP
             0.,              0.,             60.,              1.
** 
** MATERIALS
** 
*Material, name=Material-1
*Density
1.,
*Depvar
     16,
*User Material, constants=14, unsymm
127700.,  9670.,  6500.,  3640.,    0.3,    0.3,  1500.,  764.3
    36.,   160.,    60.,    0.5,    60., 0.0005
** ----------------------------------------------------------------
** 
** STEP: Step-1
** 
*Step, name=Step-1, nlgeom=NO, inc=4000
*Dynamic,application=QUASI-STATIC,initial=NO
0.06,60.,1e-05
** 
** BOUNDARY CONDITIONS
** 
** Name: fixed end Type: Symmetry/Antisymmetry/Encastre
*Boundary
geometry-fixed, ENCASTRE
** Name: xload Type: Displacement/Rotation
*Boundary, amplitude=disp-amp
_PickedSet14, 1, 1, 4.
_PickedSet14, 2, 2
_PickedSet14, 3, 3
_PickedSet14, 4, 4
_PickedSet14, 5, 5
_PickedSet14, 6, 6
** 
** OUTPUT REQUESTS
** 
*Restart, write, number interval=1, time marks=NO
** 
** FIELD OUTPUT: F-Output-1
** 
*Output, field, frequency=1
*Element Output, elset=Part-1-1.CompositeLayup-1-1-1, directions=YES
2, 5, 8, 11, 14, 17, 20, 23, 26, 29
E, S, SDV
** 
** FIELD OUTPUT: F-Output-1
** 
*Element Output, elset=Part-1-1.CompositeLayup-1-1-2, directions=YES
2, 5, 8, 11, 14, 17, 20, 23, 26, 29
E, S, SDV
** 
** HISTORY OUTPUT: H-Output-1
** 
*Output, history, frequency=1
*Node Output, nset=rp
RF1, U1, U2, U3
*End Step
