*Heading
** Job name: 80-0-UMAT-implicit-S4R-h4 Model name: 80-0-UMAT-implict-S4R
** Generated by: Abaqus/CAE 6.13-1
*Preprint, echo=NO, model=NO, history=NO, contact=NO
**
** PARTS
**
*Part, name=Part-3
*Node
      1,   158.997116,   88.9008408,           0.
      2,   156.038757,   97.3553467,           0.
      3,   151.273254,    104.93959,           0.
      4,    144.93959,   111.273262,           0.
      5,   137.355347,   116.038757,           0.
      6,   128.900833,   118.997116,           0.
      7,         120.,         120.,           0.
      8,   111.099159,   118.997116,           0.
      9,   102.644653,   116.038757,           0.
     10,   95.0604095,   111.273262,           0.
     11,    88.726738,    104.93959,           0.
     12,   83.9612427,   97.3553467,           0.
     13,   81.0028839,   88.9008408,           0.
     14,          80.,          80.,           0.
     15,   81.0028839,   71.0991592,           0.
     16,   83.9612427,   62.6446495,           0.
     17,    88.726738,   55.0604095,           0.
     18,   95.0604095,   48.7267418,           0.
     19,   102.644653,   43.9612465,           0.
     20,   111.099159,   41.0028839,           0.
** ... 4574 like lines cut
*Element, type=S3
  1, 2946, 3274, 3191
  2, 1702, 3991, 1453
  3, 4030, 2019, 4136
  4, 4319, 4318, 2499
  5, 2977, 4257, 2337
  6, 2544, 2283, 2400
  7, 2682, 4351,  811
  8, 1765, 3988, 4008
  9, 4364, 3224, 3131
 10, 2976, 4250, 2338
 11, 4238, 3370, 3383
 12, 3147,  405, 3022
 13, 3422,  456, 3323
 14, 4353, 2362,  514
 15, 4195, 2853, 2631
 16, 3997, 1833, 1987
 17, 3888, 3855,  684
 18, 4229, 2422, 2297
 19, 2250,  800, 2538
 20, 4286,  811, 2968
** ... 124 like lines cut
*Element, type=S4R
 145,   42, 1000, 1184, 1272
 146,  581, 1500, 1548, 1657
 147,  618, 1768, 1853, 2005
 148, 2617, 2626, 2797, 2522
 149, 2825,  694, 2618,  693
 150, 1641, 1604,  265, 3263
 151,   21,  971, 1603,  265
 152, 1603,  971,  970,  264
 153, 1446, 1465, 1166,  263
 154,   20,  969, 1166, 1465
 155, 1155, 1491, 1493, 1179
 156,  262, 1560, 1493, 1491
 157, 2057, 2075, 1997,  733
 158, 2206, 4229, 2297, 4154
 159, 1832,  623, 1984, 2100
 160,  588, 1531, 1588, 1673
 161,   50, 1009, 1185, 1281
 162, 1009,   49, 1280, 1185
 163,   49, 1008, 1186, 1280
 164, 1008,   48, 1279, 1186
** ... 4327 like lines cut
** Region: (CompositeLayup-1-1: Generated From Layup)
*Elset, elset=CompositeLayup-1-1, generate
    1,  4491,     1
** Section: CompositeLayup-1-1
*Shell Section, elset=CompositeLayup-1-1, composite, poisson=0.3, layup=CompositeLayup-1
0.158, 3, Material-1, 0., Ply-1
0.158, 3, Material-1, 0., Ply-2
0.158, 3, Material-1, 0., Ply-3
0.158, 3, Material-1, 0., Ply-4
0.158, 3, Material-1, 0., Ply-5
0.158, 3, Material-1, 0., Ply-6
0.158, 3, Material-1, 0., Ply-7
0.158, 3, Material-1, 0., Ply-8
0.158, 3, Material-1, 0., Ply-9
0.158, 3, Material-1, 0., Ply-10
*Transverse Shear
8558., 4792., 0.
*End Part
**  
**
** ASSEMBLY
**
*Assembly, name=Assembly
**  
*Instance, name=Part-3-1, part=Part-3
*End Instance
**  
*Node
      1,         240.,          80.,  0.790000021
*Nset, nset=geometry-fixed, instance=Part-3-1
   67,  131,  132,  133,  134,  135,  136,  137,  138,  139,  140,  141,  142,  143,  144,  145
  146,  147,  148,  149,  150,  151,  152,  153,  154,  155,  156, 1097, 1098, 1099, 1100, 1101
 1102, 1103, 1104, 1105, 1106, 1107, 1108, 1109, 1110, 1111, 1112, 1113, 1114, 1115, 1116, 1117
 1118, 1119, 1120, 1121, 1122, 1123
*Elset, elset=geometry-fixed, instance=Part-3-1
  204,  206,  240,  241,  243,  424,  425,  426,  427,  428,  429,  430,  431,  432,  433,  434
  435,  436,  437,  438,  439,  440,  441, 1083, 1095, 1116, 1788, 1830, 1831, 1832, 1833, 1834
 1835, 1836, 1837, 1838, 1840, 1841, 1842, 1843, 1844, 1845, 1848, 2026, 2034, 2035, 2047, 2049
 2050, 2061, 2067, 2069, 2095
*Nset, nset=geometry-load, instance=Part-3-1
   66,   68,   69,   70,   71,   72,   73,   74,   75,   76,   77,   78,   79,   80,   81,   82
   83,   84,   85,   86,   87,   88,   89,   90,   91,   92,   93, 1028, 1029, 1030, 1031, 1032
 1033, 1034, 1035, 1036, 1037, 1038, 1039, 1040, 1041, 1042, 1043, 1044, 1045, 1046, 1047, 1048
 1049, 1050, 1051, 1052, 1053, 1054
*Elset, elset=geometry-load, instance=Part-3-1
  381,  382,  675,  676,  699,  700,  725, 1132, 1133, 1136, 1153, 1163, 1181, 1182, 1346, 1349
 1391, 1403, 1413, 1415, 1429, 1531, 1552, 1575, 1628, 1657, 1732, 1768, 1773, 1776, 1777, 1778
 1779, 1780, 1782, 2017, 2018, 2020, 2022, 2024, 2051, 2053, 2063, 2072, 2077, 2079, 2080, 2082
 2084, 2086, 2087, 2088, 2090
*Nset, nset=node-fixed, instance=Part-3-1
   67,  131,  132,  133,  134,  135,  136,  137,  138,  139,  140,  141,  142,  143,  144,  145
  146,  147,  148,  149,  150,  151,  152,  153,  154,  155,  156, 1097, 1098, 1099, 1100, 1101
 1102, 1103, 1104, 1105, 1106, 1107, 1108, 1109, 1110, 1111, 1112, 1113, 1114, 1115, 1116, 1117
 1118, 1119, 1120, 1121, 1122, 1123
*Nset, nset=node-load, instance=Part-3-1
   66,   68,   69,   70,   71,   72,   73,   74,   75,   76,   77,   78,   79,   80,   81,   82
   83,   84,   85,   86,   87,   88,   89,   90,   91,   92,   93, 1028, 1029, 1030, 1031, 1032
 1033, 1034, 1035, 1036, 1037, 1038, 1039, 1040, 1041, 1042, 1043, 1044, 1045, 1046, 1047, 1048
 1049, 1050, 1051, 1052, 1053, 1054
*Nset, nset=rp
 1,
*Nset, nset=_PickedSet14, internal
 1,
** Constraint: Constraint-1
*Equation
2
node-load, 1, 1.
rp, 1, -1.
*End Assembly
*Amplitude, name=disp-amp, definition=SMOOTH STEP
             0.,              0.,             60.,              1.
** 
** MATERIALS
** 
*Material, name=Material-1
*Density
1.,
*Depvar
     16,
*User Material, constants=14, unsymm
127700.,   9670.,   6500.,   3640.,     0.3,     0.3, 1451.55,  725.78
     36.,    160.,     60.,      5.,     30.,  0.0005
** ----------------------------------------------------------------
** 
** STEP: Step-1
** 
*Step, name=Step-1, nlgeom=NO, inc=4000
*Dynamic,application=QUASI-STATIC,initial=NO
0.06,60.,1e-05
** 
** BOUNDARY CONDITIONS
** 
** Name: fixed end Type: Symmetry/Antisymmetry/Encastre
*Boundary
node-fixed, ENCASTRE
** Name: xload Type: Displacement/Rotation
*Boundary, amplitude=disp-amp
_PickedSet14, 1, 1, 4.
_PickedSet14, 2, 2
_PickedSet14, 3, 3
_PickedSet14, 4, 4
_PickedSet14, 5, 5
_PickedSet14, 6, 6
** 
** OUTPUT REQUESTS
** 
*Restart, write, number interval=1, time marks=NO
** 
** FIELD OUTPUT: F-Output-1
** 
*Output, field, frequency=1
*Element Output, elset=Part-3-1.CompositeLayup-1-1, directions=YES
2, 5, 8, 11, 14, 17, 20, 23, 26, 29
E, S, SDV
** 
** HISTORY OUTPUT: H-Output-1
** 
*Output, history, frequency=1
*Node Output, nset=rp
RF1, U1, U2, U3
*End Step
