*Heading
** Job name: II-80-0-UMAT-implicit-SC8R Model name: II-80-0-UMAT-implict-SC8R
** Generated by: Abaqus/CAE 6.13-1
*Preprint, echo=NO, model=NO, history=NO, contact=NO
**
** PARTS
**
*Part, name=Part-1
*Node
      1,          30.,           0.,           0.
      2,          30.,           0.,   1.58000004
      3,           0.,           0.,   1.58000004
      4,           0.,           0.,           0.
      5,          30.,         160.,   1.58000004
      6,           0.,         160.,   1.58000004
      7,           0.,         160.,           0.
      8,          30.,         160.,           0.
      9,          30.,          80.,   1.58000004
     10,         210.,           0.,   1.58000004
     11,         210.,           0.,           0.
     12,         240.,           0.,           0.
     13,         240.,           0.,   1.58000004
     14,         210.,         160.,           0.
     15,         240.,         160.,           0.
     16,         240.,         160.,   1.58000004
     17,         210.,         160.,   1.58000004
     18,         210.,          80.,   1.58000004
     19,         175.,          80.,   1.58000004
     20,         120.,          25.,   1.58000004
** ... 10636 like lines cut
*Element, type=SC8R
  1,  175,  231, 1860, 1475,    1,    2,   38,   51
  2, 1475, 1860, 1861, 1476,   51,   38,   39,   50
  3, 1476, 1861, 1862, 1477,   50,   39,   40,   49
  4, 1477, 1862, 1863, 1478,   49,   40,   41,   48
  5, 1478, 1863, 1864, 1479,   48,   41,   42,   47
  6, 1479, 1864, 1865, 1480,   47,   42,   43,   46
  7, 1480, 1865, 1866, 1481,   46,   43,   44,   45
  8, 1481, 1866,  230,   66,   45,   44,    3,    4
  9,  174,  232, 1867, 1482,  175,  231, 1860, 1475
 10, 1482, 1867, 1868, 1483, 1475, 1860, 1861, 1476
 11, 1483, 1868, 1869, 1484, 1476, 1861, 1862, 1477
 12, 1484, 1869, 1870, 1485, 1477, 1862, 1863, 1478
 13, 1485, 1870, 1871, 1486, 1478, 1863, 1864, 1479
 14, 1486, 1871, 1872, 1487, 1479, 1864, 1865, 1480
 15, 1487, 1872, 1873, 1488, 1480, 1865, 1866, 1481
 16, 1488, 1873,  229,   67, 1481, 1866,  230,   66
 17,  173,  233, 1874, 1489,  174,  232, 1867, 1482
 18, 1489, 1874, 1875, 1490, 1482, 1867, 1868, 1483
 19, 1490, 1875, 1876, 1491, 1483, 1868, 1869, 1484
 20, 1491, 1876, 1877, 1492, 1484, 1869, 1870, 1485
** ... 5117 like lines cut
*Nset, nset=geometry-fixed
    1,    2,    3,    4,    5,    6,    7,    8,    9,   38,   39,   40,   41,   42,   43,   44
   45,   46,   47,   48,   49,   50,   51,   52,   53,   54,   55,   56,   57,   58,   59,   60
   61,   62,   63,   64,   65,   66,   67,   68,   69,   70,   71,   72,   73,   74,   75,   76
   77,   78,   79,   80,   81,   82,   83,   84,   85,   86,   87,   88,   89,   90,   91,   92
   93,   94,   95,   96,   97,   98,   99,  100,  101,  102,  103,  104,  105,  106,  107,  108
  109,  110,  111,  112,  113,  114,  115,  116,  117,  118,  119,  120,  121,  122,  123,  124
  125,  126,  127,  128,  129,  130,  131,  132,  133,  134,  135,  136,  137,  138,  139,  140
  141,  142,  143,  144,  145,  146,  147,  148,  149,  150,  151,  152,  153,  154,  155,  156
  157,  158,  159,  160,  161,  162,  163,  164,  165,  166,  167,  168,  169,  170,  171,  172
  173,  174,  175,  176,  177,  178,  179,  180,  181,  182,  183,  184,  185,  186,  187,  188
  189,  190,  191,  192,  193,  194,  195,  196,  197,  198,  199,  200,  201,  202,  203,  204
  205,  206,  207,  208,  209,  210,  211,  212,  213,  214,  215,  216,  217,  218,  219,  220
  221,  222,  223,  224,  225,  226,  227,  228,  229,  230,  231,  232,  233,  234,  235,  236
  237,  238,  239,  240,  241,  242,  243,  244,  245,  246,  247,  248,  249,  250,  251,  252
  253,  254,  255,  256,  257,  258,  259,  260,  261,  262,  263,  264,  265,  266,  267,  268
  269,  270,  271,  272,  273,  274,  275,  276,  277,  278,  279,  280,  281,  282,  283,  284
 1475, 1476, 1477, 1478, 1479, 1480, 1481, 1482, 1483, 1484, 1485, 1486, 1487, 1488, 1489, 1490
 1491, 1492, 1493, 1494, 1495, 1496, 1497, 1498, 1499, 1500, 1501, 1502, 1503, 1504, 1505, 1506
 1507, 1508, 1509, 1510, 1511, 1512, 1513, 1514, 1515, 1516, 1517, 1518, 1519, 1520, 1521, 1522
 1523, 1524, 1525, 1526, 1527, 1528, 1529, 1530, 1531, 1532, 1533, 1534, 1535, 1536, 1537, 1538
** ... 45 like lines cut
*Elset, elset=geometry-fixed, generate
   1,  448,    1
*Nset, nset=geometry-load
   10,   11,   12,   13,   14,   15,   16,   17,   18,  285,  286,  287,  288,  289,  290,  291
  292,  293,  294,  295,  296,  297,  298,  299,  300,  301,  302,  303,  304,  305,  306,  307
  308,  309,  310,  311,  312,  313,  314,  315,  316,  317,  318,  319,  320,  321,  322,  323
  324,  325,  326,  327,  328,  329,  330,  331,  332,  333,  334,  335,  336,  337,  338,  339
  340,  341,  342,  343,  344,  345,  346,  347,  348,  349,  350,  351,  352,  353,  354,  355
  356,  357,  358,  359,  360,  361,  362,  363,  364,  365,  366,  367,  368,  369,  370,  371
  372,  373,  374,  375,  376,  377,  378,  379,  380,  381,  382,  383,  384,  385,  386,  387
  388,  389,  390,  391,  392,  393,  394,  395,  396,  397,  398,  399,  400,  401,  402,  403
  404,  405,  406,  407,  408,  409,  410,  411,  412,  413,  414,  415,  416,  417,  418,  419
  420,  421,  422,  423,  424,  425,  426,  427,  428,  429,  430,  431,  432,  433,  434,  435
  436,  437,  438,  439,  440,  441,  442,  443,  444,  445,  446,  447,  448,  449,  450,  451
  452,  453,  454,  455,  456,  457,  458,  459,  460,  461,  462,  463,  464,  465,  466,  467
  468,  469,  470,  471,  472,  473,  474,  475,  476,  477,  478,  479,  480,  481,  482,  483
  484,  485,  486,  487,  488,  489,  490,  491,  492,  493,  494,  495,  496,  497,  498,  499
  500,  501,  502,  503,  504,  505,  506,  507,  508,  509,  510,  511,  512,  513,  514,  515
  516,  517,  518,  519,  520,  521,  522,  523, 2245, 2246, 2247, 2248, 2249, 2250, 2251, 2252
 2253, 2254, 2255, 2256, 2257, 2258, 2259, 2260, 2261, 2262, 2263, 2264, 2265, 2266, 2267, 2268
 2269, 2270, 2271, 2272, 2273, 2274, 2275, 2276, 2277, 2278, 2279, 2280, 2281, 2282, 2283, 2284
 2285, 2286, 2287, 2288, 2289, 2290, 2291, 2292, 2293, 2294, 2295, 2296, 2297, 2298, 2299, 2300
 2301, 2302, 2303, 2304, 2305, 2306, 2307, 2308, 2309, 2310, 2311, 2312, 2313, 2314, 2315, 2316
** ... 42 like lines cut
*Elset, elset=geometry-load, generate
 449,  880,    1
*Elset, elset=element-fixed, generate
   1,  448,    1
*Nset, nset=node-fixed
    1,    2,    3,    4,    5,    6,    7,    8,    9,   38,   39,   40,   41,   42,   43,   44
   45,   46,   47,   48,   49,   50,   51,   52,   53,   54,   55,   56,   57,   58,   59,   60
   61,   62,   63,   64,   65,   66,   67,   68,   69,   70,   71,   72,   73,   74,   75,   76
   77,   78,   79,   80,   81,   82,   83,   84,   85,   86,   87,   88,   89,   90,   91,   92
   93,   94,   95,   96,   97,   98,   99,  100,  101,  102,  103,  104,  105,  106,  107,  108
  109,  110,  111,  112,  113,  114,  115,  116,  117,  118,  119,  120,  121,  122,  123,  124
  125,  126,  127,  128,  129,  130,  131,  132,  133,  134,  135,  136,  137,  138,  139,  140
  141,  142,  143,  144,  145,  146,  147,  148,  149,  150,  151,  152,  153,  154,  155,  156
  157,  158,  159,  160,  161,  162,  163,  164,  165,  166,  167,  168,  169,  170,  171,  172
  173,  174,  175,  176,  177,  178,  179,  180,  181,  182,  183,  184,  185,  186,  187,  188
  189,  190,  191,  192,  193,  194,  195,  196,  197,  198,  199,  200,  201,  202,  203,  204
  205,  206,  207,  208,  209,  210,  211,  212,  213,  214,  215,  216,  217,  218,  219,  220
  221,  222,  223,  224,  225,  226,  227,  228,  229,  230,  231,  232,  233,  234,  235,  236
  237,  238,  239,  240,  241,  242,  243,  244,  245,  246,  247,  248,  249,  250,  251,  252
  253,  254,  255,  256,  257,  258,  259,  260,  261,  262,  263,  264,  265,  266,  267,  268
  269,  270,  271,  272,  273,  274,  275,  276,  277,  278,  279,  280,  281,  282,  283,  284
 1475, 1476, 1477, 1478, 1479, 1480, 1481, 1482, 1483, 1484, 1485, 1486, 1487, 1488, 1489, 1490
 1491, 1492, 1493, 1494, 1495, 1496, 1497, 1498, 1499, 1500, 1501, 1502, 1503, 1504, 1505, 1506
 1507, 1508, 1509, 1510, 1511, 1512, 1513, 1514, 1515, 1516, 1517, 1518, 1519, 1520, 1521, 1522
 1523, 1524, 1525, 1526, 1527, 1528, 1529, 1530, 1531, 1532, 1533, 1534, 1535, 1536, 1537, 1538
** ... 45 like lines cut
*Nset, nset=node-load
   10,   11,   12,   13,   14,   15,   16,   17,   18,  285,  286,  287,  288,  289,  290,  291
  292,  293,  294,  295,  296,  297,  298,  299,  300,  301,  302,  303,  304,  305,  306,  307
  308,  309,  310,  311,  312,  313,  314,  315,  316,  317,  318,  319,  320,  321,  322,  323
  324,  325,  326,  327,  328,  329,  330,  331,  332,  333,  334,  335,  336,  337,  338,  339
  340,  341,  342,  343,  344,  345,  346,  347,  348,  349,  350,  351,  352,  353,  354,  355
  356,  357,  358,  359,  360,  361,  362,  363,  364,  365,  366,  367,  368,  369,  370,  371
  372,  373,  374,  375,  376,  377,  378,  379,  380,  381,  382,  383,  384,  385,  386,  387
  388,  389,  390,  391,  392,  393,  394,  395,  396,  397,  398,  399,  400,  401,  402,  403
  404,  405,  406,  407,  408,  409,  410,  411,  412,  413,  414,  415,  416,  417,  418,  419
  420,  421,  422,  423,  424,  425,  426,  427,  428,  429,  430,  431,  432,  433,  434,  435
  436,  437,  438,  439,  440,  441,  442,  443,  444,  445,  446,  447,  448,  449,  450,  451
  452,  453,  454,  455,  456,  457,  458,  459,  460,  461,  462,  463,  464,  465,  466,  467
  468,  469,  470,  471,  472,  473,  474,  475,  476,  477,  478,  479,  480,  481,  482,  483
  484,  485,  486,  487,  488,  489,  490,  491,  492,  493,  494,  495,  496,  497,  498,  499
  500,  501,  502,  503,  504,  505,  506,  507,  508,  509,  510,  511,  512,  513,  514,  515
  516,  517,  518,  519,  520,  521,  522,  523, 2245, 2246, 2247, 2248, 2249, 2250, 2251, 2252
 2253, 2254, 2255, 2256, 2257, 2258, 2259, 2260, 2261, 2262, 2263, 2264, 2265, 2266, 2267, 2268
 2269, 2270, 2271, 2272, 2273, 2274, 2275, 2276, 2277, 2278, 2279, 2280, 2281, 2282, 2283, 2284
 2285, 2286, 2287, 2288, 2289, 2290, 2291, 2292, 2293, 2294, 2295, 2296, 2297, 2298, 2299, 2300
 2301, 2302, 2303, 2304, 2305, 2306, 2307, 2308, 2309, 2310, 2311, 2312, 2313, 2314, 2315, 2316
** ... 42 like lines cut
*Elset, elset=element-load, generate
 449,  880,    1
** Region: (CompositeLayup-1-1: Generated From Layup), (Controls:EC-1)
*Elset, elset=CompositeLayup-1-1, generate
    1,  5137,     1
** Section: CompositeLayup-1-1
*Shell Section, elset=CompositeLayup-1-1, composite, controls=EC-1, poisson=0.3, thickness modulus=9600., stack direction=3, 
layup=CompositeLayup-1
0.158, 3, Material-1, 0., Ply-1
0.158, 3, Material-1, 0., Ply-2
0.158, 3, Material-1, 0., Ply-3
0.158, 3, Material-1, 0., Ply-4
0.158, 3, Material-1, 0., Ply-5
0.158, 3, Material-1, 0., Ply-6
0.158, 3, Material-1, 0., Ply-7
0.158, 3, Material-1, 0., Ply-8
*Transverse Shear
8558., 4792., 0.
*Hourglass Stiffness
1., , 1., 0.
*End Part
**  
**
** ASSEMBLY
**
*Assembly, name=Assembly
**  
*Instance, name=Part-1-1, part=Part-1
*End Instance
**  
*Node
      1,         240.,          80.,  0.790000021
*Nset, nset=rp
 1,
*Nset, nset=_PickedSet14, internal
 1,
*Elset, elset=_s_Surf-1_S6, internal, instance=Part-1-1, generate
 449,  880,    1
*Surface, type=ELEMENT, name=s_Surf-1
_s_Surf-1_S6, S6
** Constraint: Constraint-1
*Equation
2
Part-1-1.node-load, 1, 1.
rp, 1, -1.
*End Assembly
** 
** ELEMENT CONTROLS
** 
*Section Controls, name=EC-1, hourglass=STIFFNESS, VISCOSITY=1.
1., 1., 1.
*Amplitude, name=disp-amp, definition=SMOOTH STEP
             0.,              0.,             60.,              1.
** 
** MATERIALS
** 
*Material, name=Material-1
*Density
1.,
*Depvar
     16,
*User Material, constants=14, unsymm
130400.,  7120.,  3800.,  2600.,  0.274,    0.3, 1781.1,  1160.
   36.8,   182.,   240.,     5.,    30., 0.0005
** ----------------------------------------------------------------
** 
** STEP: Step-1
** 
*Step, name=Step-1, nlgeom=NO, inc=4000
*Dynamic,application=QUASI-STATIC,initial=NO
0.06,60.,1e-05
** 
** BOUNDARY CONDITIONS
** 
** Name: fixed end Type: Symmetry/Antisymmetry/Encastre
*Boundary
Part-1-1.geometry-fixed, ENCASTRE
** Name: xload Type: Displacement/Rotation
*Boundary, amplitude=disp-amp
_PickedSet14, 1, 1, 4.
_PickedSet14, 2, 2
_PickedSet14, 3, 3
_PickedSet14, 4, 4
_PickedSet14, 5, 5
_PickedSet14, 6, 6
** 
** OUTPUT REQUESTS
** 
*Restart, write, number interval=1, time marks=NO
** 
** FIELD OUTPUT: F-Output-1
** 
*Output, field, frequency=1
*Element Output, elset=Part-1-1.CompositeLayup-1-1, directions=YES
2, 5, 8, 11, 14, 17, 20, 23
E, S, SDV
** 
** HISTORY OUTPUT: H-Output-1
** 
*Output, history, frequency=1
*Node Output, nset=rp
RF1, U1, U2, U3
*End Step
