*Heading
** Job name: small_hole-0-90 Model name: smallHole-0-90-UMAT-implict-SC8R
** Generated by: Abaqus/CAE 6.13-1
*Preprint, echo=NO, model=NO, history=NO, contact=NO
**
** PARTS
**
*Part, name=Part-2
*Node
      1,           0.,          18.,    2.6400001
      2,         116.,          18.,    2.6400001
      3,         116.,          27.,    2.6400001
      4,           0.,          27.,    2.6400001
      5,           0.,           9.,    2.6400001
      6,         116.,           9.,    2.6400001
      7,         125.,           9.,    2.6400001
      8,         125.,          15.,    2.6400001
      9,         122.,          18.,    2.6400001
     10,         125.,          21.,    2.6400001
     11,         125.,          27.,    2.6400001
     12,         116.,          36.,    2.6400001
     13,         125.,          36.,    2.6400001
     14,           0.,          36.,    2.6400001
     15,           0.,           0.,    2.6400001
     16,         116.,           0.,    2.6400001
     17,         125.,           0.,    2.6400001
     18,         134.,           0.,    2.6400001
     19,         134.,           9.,    2.6400001
     20,         134.,          18.,    2.6400001
** ... 7076 like lines cut
*Element, type=SC8R
   1,  132,  715,   29,    1, 3680, 4263, 3577, 3549
   2,  715,  716,   30,   29, 4263, 4264, 3578, 3577
   3,  716,  717,   31,   30, 4264, 4265, 3579, 3578
   4,  717,  718,   32,   31, 4265, 4266, 3580, 3579
   5,  718,  719,   33,   32, 4266, 4267, 3581, 3580
   6,  719,  720,   34,   33, 4267, 4268, 3582, 3581
   7,  720,  721,   35,   34, 4268, 4269, 3583, 3582
   8,  721,  722,   36,   35, 4269, 4270, 3584, 3583
   9,  722,  723,   37,   36, 4270, 4271, 3585, 3584
  10,  723,  724,   38,   37, 4271, 4272, 3586, 3585
  11,  724,  725,   39,   38, 4272, 4273, 3587, 3586
  12,  725,  726,   40,   39, 4273, 4274, 3588, 3587
  13,  726,  727,   41,   40, 4274, 4275, 3589, 3588
  14,  727,  728,   42,   41, 4275, 4276, 3590, 3589
  15,  728,  729,   43,   42, 4276, 4277, 3591, 3590
  16,  729,  730,   44,   43, 4277, 4278, 3592, 3591
  17,  730,  731,   45,   44, 4278, 4279, 3593, 3592
  18,  731,  732,   46,   45, 4279, 4280, 3594, 3593
  19,  732,  733,   47,   46, 4280, 4281, 3595, 3594
  20,  733,  734,   48,   47, 4281, 4282, 3596, 3595
** ... 3370 like lines cut
** Region: (CompositeLayup-1-1: Generated From Layup)
*Elset, elset=CompositeLayup-1-1, generate
    1,  3390,     1
** Section: CompositeLayup-1-1
*Shell Section, elset=CompositeLayup-1-1, composite, poisson=0.3, thickness modulus=9600., stack direction=3, 
layup=CompositeLayup-1
0.165, 3, Material-1, 0., Ply-1
0.165, 3, Material-1, 90., Ply-2
0.165, 3, Material-1, 0., Ply-3
0.165, 3, Material-1, 90., Ply-4
0.165, 3, Material-1, 0., Ply-5
0.165, 3, Material-1, 90., Ply-6
0.165, 3, Material-1, 0., Ply-7
0.165, 3, Material-1, 90., Ply-8
0.165, 3, Material-1, 45., Ply-9
0.165, 3, Material-1, -45., Ply-10
0.165, 3, Material-1, 45., Ply-11
0.165, 3, Material-1, -45., Ply-12
0.165, 3, Material-1, 45., Ply-13
0.165, 3, Material-1, -45., Ply-14
0.165, 3, Material-1, 45., Ply-15
0.165, 3, Material-1, -45., Ply-16
*Transverse Shear
8558., 4792., 0.
*End Part
**  
**
** ASSEMBLY
**
*Assembly, name=Assembly
**  
*Instance, name=Part-2-1, part=Part-2
*End Instance
**  
*Node
      1,         250.,          18.,   1.32000005
*Nset, nset=fixedface, instance=Part-2-1
    1,    4,    5,   14,   15,  124,  125,  126,  127,  128,  129,  130,  131,  132,  185,  186
  187,  188,  189,  190,  191,  192,  193,  315,  316,  317,  318,  319,  320, 3549, 3552, 3553
 3562, 3563, 3672, 3673, 3674, 3675, 3676, 3677, 3678, 3679, 3680, 3733, 3734, 3735, 3736, 3737
 3738, 3739, 3740, 3741, 3863, 3864, 3865, 3866, 3867, 3868
*Elset, elset=fixedface, instance=Part-2-1
    1,   45,   89,  133,  177,  221,  265,  309,  353,  397,  441,  485,  529,  573,  617,  661
  705,  749,  793,  837, 1451, 1452, 1453, 1454, 1498, 1542, 1586, 1630
*Nset, nset=loadface, instance=Part-2-1
   24,   25,   26,   27,   28,  511,  512,  513,  604,  605,  606,  607,  608,  609,  610,  611
  612,  613,  614,  615,  616,  617,  618,  619,  620,  621,  667,  668,  669, 3572, 3573, 3574
 3575, 3576, 4059, 4060, 4061, 4152, 4153, 4154, 4155, 4156, 4157, 4158, 4159, 4160, 4161, 4162
 4163, 4164, 4165, 4166, 4167, 4168, 4169, 4215, 4216, 4217
*Elset, elset=loadface, instance=Part-2-1
 2283, 2284, 2285, 2286, 2287, 2333, 2379, 2425, 2471, 2517, 2563, 2609, 2655, 2701, 2792, 2838
 2884, 2930, 2976, 3022, 3068, 3114, 3160, 3206, 3252, 3298, 3344, 3390
*Nset, nset=node-loadface, instance=Part-2-1
   24,   25,   26,   27,   28,  511,  512,  513,  604,  605,  606,  607,  608,  609,  610,  611
  612,  613,  614,  615,  616,  617,  618,  619,  620,  621,  667,  668,  669, 3572, 3573, 3574
 3575, 3576, 4059, 4060, 4061, 4152, 4153, 4154, 4155, 4156, 4157, 4158, 4159, 4160, 4161, 4162
 4163, 4164, 4165, 4166, 4167, 4168, 4169, 4215, 4216, 4217
*Nset, nset=rp
 1,
*Nset, nset=_PickedSet14, internal
 1,
*Elset, elset=_s_Surf-1_S3, internal, instance=Part-2-1, generate
 2283,  2286,     1
*Elset, elset=_s_Surf-1_S6, internal, instance=Part-2-1, generate
 2287,  2701,    46
*Elset, elset=_s_Surf-1_S4, internal, instance=Part-2-1, generate
 2792,  3390,    46
*Surface, type=ELEMENT, name=s_Surf-1
_s_Surf-1_S3, S3
_s_Surf-1_S6, S6
_s_Surf-1_S4, S4
** Constraint: Constraint-1
*Equation
2
node-loadface, 1, 1.
rp, 1, -1.
*End Assembly
*Amplitude, name=disp-amp, definition=SMOOTH STEP
             0.,              0.,             60.,              1.
** 
** MATERIALS
** 
*Material, name=Material-1
*Density
1.,
*Depvar
     16,
*User Material, constants=14, unsymm
127700.,   9670.,   6500.,   3640.,     0.3,     0.3, 1451.55,  725.78
     36.,    160.,     60.,      5.,     30.,  0.0005
** ----------------------------------------------------------------
** 
** STEP: Step-1
** 
*Step, name=Step-1, nlgeom=NO, inc=4000
*Dynamic,application=QUASI-STATIC,initial=NO
0.06,60.,1e-05
** 
** BOUNDARY CONDITIONS
** 
** Name: fixed end Type: Symmetry/Antisymmetry/Encastre
*Boundary
fixedface, ENCASTRE
** Name: xload Type: Displacement/Rotation
*Boundary, amplitude=disp-amp
_PickedSet14, 1, 1, 4.
_PickedSet14, 2, 2
_PickedSet14, 3, 3
_PickedSet14, 4, 4
_PickedSet14, 5, 5
_PickedSet14, 6, 6
** 
** OUTPUT REQUESTS
** 
*Restart, write, number interval=1, time marks=NO
** 
** FIELD OUTPUT: F-Output-1
** 
*Output, field, frequency=1
*Element Output, elset=Part-2-1.CompositeLayup-1-1, directions=YES
2, 5, 8, 11, 14, 17, 20, 23, 26, 29, 32, 35, 38, 41, 44, 47
E, S, SDV
** 
** HISTORY OUTPUT: H-Output-1
** 
*Output, history, frequency=1
*Node Output, nset=rp
RF1, U1, U2, U3
*End Step
