*Heading
** Job name: II-60-0-90-45 Model name: II-60-0-90-45-UMAT-implict-SC8R
** Generated by: Abaqus/CAE 6.13-1
*Preprint, echo=NO, model=NO, history=NO, contact=NO
**
** PARTS
**
*Part, name=Part-1
*Node
      1,          30.,         160.,   1.20000005
      2,          30.,         160.,           0.
      3,           0.,         160.,           0.
      4,           0.,         160.,   1.20000005
      5,          30.,           0.,           0.
      6,           0.,           0.,           0.
      7,           0.,           0.,   1.20000005
      8,          30.,           0.,   1.20000005
      9,          30.,          80.,   1.20000005
     10,         210.,           0.,   1.20000005
     11,         210.,           0.,           0.
     12,         240.,           0.,           0.
     13,         240.,           0.,   1.20000005
     14,         210.,         160.,           0.
     15,         240.,         160.,           0.
     16,         240.,         160.,   1.20000005
     17,         210.,         160.,   1.20000005
     18,         210.,          80.,   1.20000005
     19,         120.,           0.,   1.20000005
     20,         120.,          25.,   1.20000005
** ... 12480 like lines cut
*Element, type=SC8R
  1,  155,  237, 1960, 1575,    1,    2,   45,   58
  2, 1575, 1960, 1961, 1576,   58,   45,   46,   57
  3, 1576, 1961, 1962, 1577,   57,   46,   47,   56
  4, 1577, 1962, 1963, 1578,   56,   47,   48,   55
  5, 1578, 1963, 1964, 1579,   55,   48,   49,   54
  6, 1579, 1964, 1965, 1580,   54,   49,   50,   53
  7, 1580, 1965, 1966, 1581,   53,   50,   51,   52
  8, 1581, 1966,  236,   73,   52,   51,    3,    4
  9,  154,  238, 1967, 1582,  155,  237, 1960, 1575
 10, 1582, 1967, 1968, 1583, 1575, 1960, 1961, 1576
 11, 1583, 1968, 1969, 1584, 1576, 1961, 1962, 1577
 12, 1584, 1969, 1970, 1585, 1577, 1962, 1963, 1578
 13, 1585, 1970, 1971, 1586, 1578, 1963, 1964, 1579
 14, 1586, 1971, 1972, 1587, 1579, 1964, 1965, 1580
 15, 1587, 1972, 1973, 1588, 1580, 1965, 1966, 1581
 16, 1588, 1973,  235,   74, 1581, 1966,  236,   73
 17,  153,  239, 1974, 1589,  154,  238, 1967, 1582
 18, 1589, 1974, 1975, 1590, 1582, 1967, 1968, 1583
 19, 1590, 1975, 1976, 1591, 1583, 1968, 1969, 1584
 20, 1591, 1976, 1977, 1592, 1584, 1969, 1970, 1585
** ... 6060 like lines cut
*Nset, nset=geometry-fixed
    1,    2,    3,    4,    5,    6,    7,    8,    9,   45,   46,   47,   48,   49,   50,   51
   52,   53,   54,   55,   56,   57,   58,   59,   60,   61,   62,   63,   64,   65,   66,   67
   68,   69,   70,   71,   72,   73,   74,   75,   76,   77,   78,   79,   80,   81,   82,   83
   84,   85,   86,   87,   88,   89,   90,   91,   92,   93,   94,   95,   96,   97,   98,   99
  100,  101,  102,  103,  104,  105,  106,  107,  108,  109,  110,  111,  112,  113,  114,  115
  116,  117,  118,  119,  120,  121,  122,  123,  124,  125,  126,  127,  128,  129,  130,  131
  132,  133,  134,  135,  136,  137,  138,  139,  140,  141,  142,  143,  144,  145,  146,  147
  148,  149,  150,  151,  152,  153,  154,  155,  156,  157,  158,  159,  160,  161,  162,  163
  164,  165,  166,  167,  168,  169,  170,  171,  172,  173,  174,  175,  176,  177,  178,  179
  180,  181,  182,  183,  184,  185,  186,  187,  188,  189,  190,  191,  192,  193,  194,  195
  196,  197,  198,  199,  200,  201,  202,  203,  204,  205,  206,  207,  208,  209,  210,  211
  212,  213,  214,  215,  216,  217,  218,  219,  220,  221,  222,  223,  224,  225,  226,  227
  228,  229,  230,  231,  232,  233,  234,  235,  236,  237,  238,  239,  240,  241,  242,  243
  244,  245,  246,  247,  248,  249,  250,  251,  252,  253,  254,  255,  256,  257,  258,  259
  260,  261,  262,  263,  264,  265,  266,  267,  268,  269,  270,  271,  272,  273,  274,  275
  276,  277,  278,  279,  280,  281,  282,  283,  284,  285,  286,  287,  288,  289,  290,  291
 1575, 1576, 1577, 1578, 1579, 1580, 1581, 1582, 1583, 1584, 1585, 1586, 1587, 1588, 1589, 1590
 1591, 1592, 1593, 1594, 1595, 1596, 1597, 1598, 1599, 1600, 1601, 1602, 1603, 1604, 1605, 1606
 1607, 1608, 1609, 1610, 1611, 1612, 1613, 1614, 1615, 1616, 1617, 1618, 1619, 1620, 1621, 1622
 1623, 1624, 1625, 1626, 1627, 1628, 1629, 1630, 1631, 1632, 1633, 1634, 1635, 1636, 1637, 1638
** ... 45 like lines cut
*Elset, elset=geometry-fixed, generate
   1,  448,    1
*Nset, nset=geometry-load
   10,   11,   12,   13,   14,   15,   16,   17,   18,  292,  293,  294,  295,  296,  297,  298
  299,  300,  301,  302,  303,  304,  305,  306,  307,  308,  309,  310,  311,  312,  313,  314
  315,  316,  317,  318,  319,  320,  321,  322,  323,  324,  325,  326,  327,  328,  329,  330
  331,  332,  333,  334,  335,  336,  337,  338,  339,  340,  341,  342,  343,  344,  345,  346
  347,  348,  349,  350,  351,  352,  353,  354,  355,  356,  357,  358,  359,  360,  361,  362
  363,  364,  365,  366,  367,  368,  369,  370,  371,  372,  373,  374,  375,  376,  377,  378
  379,  380,  381,  382,  383,  384,  385,  386,  387,  388,  389,  390,  391,  392,  393,  394
  395,  396,  397,  398,  399,  400,  401,  402,  403,  404,  405,  406,  407,  408,  409,  410
  411,  412,  413,  414,  415,  416,  417,  418,  419,  420,  421,  422,  423,  424,  425,  426
  427,  428,  429,  430,  431,  432,  433,  434,  435,  436,  437,  438,  439,  440,  441,  442
  443,  444,  445,  446,  447,  448,  449,  450,  451,  452,  453,  454,  455,  456,  457,  458
  459,  460,  461,  462,  463,  464,  465,  466,  467,  468,  469,  470,  471,  472,  473,  474
  475,  476,  477,  478,  479,  480,  481,  482,  483,  484,  485,  486,  487,  488,  489,  490
  491,  492,  493,  494,  495,  496,  497,  498,  499,  500,  501,  502,  503,  504,  505,  506
  507,  508,  509,  510,  511,  512,  513,  514,  515,  516,  517,  518,  519,  520,  521,  522
  523,  524,  525,  526,  527,  528,  529,  530, 2345, 2346, 2347, 2348, 2349, 2350, 2351, 2352
 2353, 2354, 2355, 2356, 2357, 2358, 2359, 2360, 2361, 2362, 2363, 2364, 2365, 2366, 2367, 2368
 2369, 2370, 2371, 2372, 2373, 2374, 2375, 2376, 2377, 2378, 2379, 2380, 2381, 2382, 2383, 2384
 2385, 2386, 2387, 2388, 2389, 2390, 2391, 2392, 2393, 2394, 2395, 2396, 2397, 2398, 2399, 2400
 2401, 2402, 2403, 2404, 2405, 2406, 2407, 2408, 2409, 2410, 2411, 2412, 2413, 2414, 2415, 2416
** ... 42 like lines cut
*Elset, elset=geometry-load, generate
 449,  880,    1
*Elset, elset=element-fixed, generate
   1,  448,    1
*Nset, nset=node-fixed
    1,    2,    3,    4,    5,    6,    7,    8,    9,   45,   46,   47,   48,   49,   50,   51
   52,   53,   54,   55,   56,   57,   58,   59,   60,   61,   62,   63,   64,   65,   66,   67
   68,   69,   70,   71,   72,   73,   74,   75,   76,   77,   78,   79,   80,   81,   82,   83
   84,   85,   86,   87,   88,   89,   90,   91,   92,   93,   94,   95,   96,   97,   98,   99
  100,  101,  102,  103,  104,  105,  106,  107,  108,  109,  110,  111,  112,  113,  114,  115
  116,  117,  118,  119,  120,  121,  122,  123,  124,  125,  126,  127,  128,  129,  130,  131
  132,  133,  134,  135,  136,  137,  138,  139,  140,  141,  142,  143,  144,  145,  146,  147
  148,  149,  150,  151,  152,  153,  154,  155,  156,  157,  158,  159,  160,  161,  162,  163
  164,  165,  166,  167,  168,  169,  170,  171,  172,  173,  174,  175,  176,  177,  178,  179
  180,  181,  182,  183,  184,  185,  186,  187,  188,  189,  190,  191,  192,  193,  194,  195
  196,  197,  198,  199,  200,  201,  202,  203,  204,  205,  206,  207,  208,  209,  210,  211
  212,  213,  214,  215,  216,  217,  218,  219,  220,  221,  222,  223,  224,  225,  226,  227
  228,  229,  230,  231,  232,  233,  234,  235,  236,  237,  238,  239,  240,  241,  242,  243
  244,  245,  246,  247,  248,  249,  250,  251,  252,  253,  254,  255,  256,  257,  258,  259
  260,  261,  262,  263,  264,  265,  266,  267,  268,  269,  270,  271,  272,  273,  274,  275
  276,  277,  278,  279,  280,  281,  282,  283,  284,  285,  286,  287,  288,  289,  290,  291
 1575, 1576, 1577, 1578, 1579, 1580, 1581, 1582, 1583, 1584, 1585, 1586, 1587, 1588, 1589, 1590
 1591, 1592, 1593, 1594, 1595, 1596, 1597, 1598, 1599, 1600, 1601, 1602, 1603, 1604, 1605, 1606
 1607, 1608, 1609, 1610, 1611, 1612, 1613, 1614, 1615, 1616, 1617, 1618, 1619, 1620, 1621, 1622
 1623, 1624, 1625, 1626, 1627, 1628, 1629, 1630, 1631, 1632, 1633, 1634, 1635, 1636, 1637, 1638
** ... 45 like lines cut
*Elset, elset=element-load, generate
 449,  880,    1
*Nset, nset=node-load
   10,   11,   12,   13,   14,   15,   16,   17,   18,  292,  293,  294,  295,  296,  297,  298
  299,  300,  301,  302,  303,  304,  305,  306,  307,  308,  309,  310,  311,  312,  313,  314
  315,  316,  317,  318,  319,  320,  321,  322,  323,  324,  325,  326,  327,  328,  329,  330
  331,  332,  333,  334,  335,  336,  337,  338,  339,  340,  341,  342,  343,  344,  345,  346
  347,  348,  349,  350,  351,  352,  353,  354,  355,  356,  357,  358,  359,  360,  361,  362
  363,  364,  365,  366,  367,  368,  369,  370,  371,  372,  373,  374,  375,  376,  377,  378
  379,  380,  381,  382,  383,  384,  385,  386,  387,  388,  389,  390,  391,  392,  393,  394
  395,  396,  397,  398,  399,  400,  401,  402,  403,  404,  405,  406,  407,  408,  409,  410
  411,  412,  413,  414,  415,  416,  417,  418,  419,  420,  421,  422,  423,  424,  425,  426
  427,  428,  429,  430,  431,  432,  433,  434,  435,  436,  437,  438,  439,  440,  441,  442
  443,  444,  445,  446,  447,  448,  449,  450,  451,  452,  453,  454,  455,  456,  457,  458
  459,  460,  461,  462,  463,  464,  465,  466,  467,  468,  469,  470,  471,  472,  473,  474
  475,  476,  477,  478,  479,  480,  481,  482,  483,  484,  485,  486,  487,  488,  489,  490
  491,  492,  493,  494,  495,  496,  497,  498,  499,  500,  501,  502,  503,  504,  505,  506
  507,  508,  509,  510,  511,  512,  513,  514,  515,  516,  517,  518,  519,  520,  521,  522
  523,  524,  525,  526,  527,  528,  529,  530, 2345, 2346, 2347, 2348, 2349, 2350, 2351, 2352
 2353, 2354, 2355, 2356, 2357, 2358, 2359, 2360, 2361, 2362, 2363, 2364, 2365, 2366, 2367, 2368
 2369, 2370, 2371, 2372, 2373, 2374, 2375, 2376, 2377, 2378, 2379, 2380, 2381, 2382, 2383, 2384
 2385, 2386, 2387, 2388, 2389, 2390, 2391, 2392, 2393, 2394, 2395, 2396, 2397, 2398, 2399, 2400
 2401, 2402, 2403, 2404, 2405, 2406, 2407, 2408, 2409, 2410, 2411, 2412, 2413, 2414, 2415, 2416
** ... 42 like lines cut
** Region: (CompositeLayup-1-1: Generated From Layup), (Controls:EC-1)
*Elset, elset=CompositeLayup-1-1, generate
    1,  6080,     1
** Section: CompositeLayup-1-1
*Shell Section, elset=CompositeLayup-1-1, composite, controls=EC-1, poisson=0.3, thickness modulus=7120., stack direction=3, 
layup=CompositeLayup-1
0.158, 3, Material-1, 0., Ply-1
0.158, 3, Material-1, 90., Ply-2
0.158, 3, Material-1, 45., Ply-3
0.158, 3, Material-1, -45., Ply-4
0.158, 3, Material-1, -45., Ply-5
0.158, 3, Material-1, 45., Ply-6
0.158, 3, Material-1, 90., Ply-7
0.158, 3, Material-1, 0., Ply-8
*Transverse Shear
3470., 2600., 0.
*Hourglass Stiffness
1., , 1., 0.
*End Part
**  
**
** ASSEMBLY
**
*Assembly, name=Assembly
**  
*Instance, name=Part-1-1, part=Part-1
*End Instance
**  
*Node
      1,         240.,          80.,  0.600000024
*Nset, nset=halfnode-load, instance=Part-1-1
   10,   13,   16,   17,   18,  299,  300,  301,  302,  303,  304,  305,  313,  314,  315,  316
  317,  318,  319,  320,  321,  322,  323,  324,  325,  326,  327,  328,  329,  330,  331,  332
  333,  334,  335,  336,  337,  338,  339,  340,  341,  342,  343,  344,  345,  346,  347,  348
  349,  350,  351,  352,  353,  354,  355,  356,  357,  358,  359,  360,  361,  362,  363,  364
  365,  366,  367,  368,  369,  370,  371,  372,  373,  374,  375,  376,  377,  378,  379,  380
  381,  382,  383,  384,  385,  386,  387,  388,  389,  390,  391,  392,  393,  394,  395,  396
  397,  398,  399,  400,  401,  402,  403,  404,  405,  406,  407,  408,  409,  410,  411,  412
  413,  414,  415,  416,  417,  418,  419,  420,  421,  422,  423,  424, 2345, 2346, 2347, 2348
 2349, 2350, 2351, 2352, 2353, 2354, 2355, 2356, 2357, 2358, 2359, 2360, 2361, 2362, 2363, 2364
 2365, 2366, 2367, 2368, 2369, 2370, 2371, 2372, 2373, 2374, 2375, 2376, 2377, 2378, 2379, 2380
 2381, 2382, 2383, 2384, 2385, 2386, 2387, 2388, 2389, 2390, 2391, 2392, 2393, 2394, 2395, 2396
 2397, 2398, 2399, 2400, 2401, 2402, 2403, 2404, 2405, 2406, 2407, 2408, 2409, 2410, 2411, 2412
 2413, 2414, 2415, 2416, 2417, 2418, 2419, 2420, 2421, 2422, 2423, 2424, 2425, 2426, 2427, 2428
 2429, 2430, 2431, 2432, 2433, 2434, 2435, 2436, 2437, 2438, 2439, 2440, 2441, 2442, 2443, 2444
 2445, 2446, 2447, 2448, 2449, 2450, 2451, 2452, 2453, 2454, 2455, 2456, 2457, 2458, 2459, 2460
 2461, 2462, 2463, 2464, 2465, 2466, 2467, 2468, 2469, 2470, 2471, 2472, 2473, 2474, 2475, 2476
 2477, 2478, 2479, 2480, 2481, 2482, 2483, 2484, 2485, 2486, 2487, 2488, 2489, 2490, 2491, 2492
 2493, 2494, 2495, 2496, 2497, 2498, 2499, 2500, 2501, 2502, 2503, 2504, 2505, 2506, 2507, 2508
 2509, 2510, 2511, 2512, 2513, 2514, 2515, 2516, 2517, 2518, 2519, 2520, 2521, 2522, 2523, 2524
 2525, 2526, 2527, 2528, 2529, 2530, 2531, 2532, 2533, 2534, 2535, 2536, 2537, 2538, 2539, 2540
** ... 11 like lines cut
*Nset, nset=rp
 1,
*Nset, nset=_PickedSet14, internal
 1,
*Elset, elset=_s_Surf-1_S6, internal, instance=Part-1-1, generate
 449,  880,    1
*Surface, type=ELEMENT, name=s_Surf-1
_s_Surf-1_S6, S6
** Constraint: Constraint-1
*Equation
2
Part-1-1.node-load, 1, 1.
rp, 1, -1.
*End Assembly
** 
** ELEMENT CONTROLS
** 
*Section Controls, name=EC-1, hourglass=STIFFNESS, VISCOSITY=1.
1., 1., 1.
*Amplitude, name=disp-amp, definition=SMOOTH STEP
             0.,              0.,             60.,              1.
** 
** MATERIALS
** 
*Material, name=Material-1
*Density
1.,
*Depvar
     16,
*User Material, constants=14, unsymm
130400.,  7120.,  3470.,  2600.,  0.274,  0.372, 1781.1, 1068.7
   36.8,   182.,  122.6,     5.,    60., 0.0005
** ----------------------------------------------------------------
** 
** STEP: Step-1
** 
*Step, name=Step-1, nlgeom=NO, inc=4000
*Dynamic,application=QUASI-STATIC,initial=NO
0.06,60.,1e-05
** 
** BOUNDARY CONDITIONS
** 
** Name: fixed end Type: Symmetry/Antisymmetry/Encastre
*Boundary
Part-1-1.geometry-fixed, ENCASTRE
** Name: xload Type: Displacement/Rotation
*Boundary, amplitude=disp-amp
_PickedSet14, 1, 1, 4.
_PickedSet14, 2, 2
_PickedSet14, 3, 3
_PickedSet14, 4, 4
_PickedSet14, 5, 5
_PickedSet14, 6, 6
** 
** OUTPUT REQUESTS
** 
*Restart, write, number interval=1, time marks=NO
** 
** FIELD OUTPUT: F-Output-1
** 
*Output, field, frequency=1
*Element Output, elset=Part-1-1.CompositeLayup-1-1, directions=YES
2, 5, 8, 11, 14, 17, 20, 23
E, S, SDV
** 
** HISTORY OUTPUT: H-Output-1
** 
*Output, history, frequency=1
*Node Output, nset=rp
RF1, U1, U2, U3
*End Step
