*Heading
** Job name: I-80-0-90-lin Model name: 80-0-90-UMAT-implict-SC8R
** Generated by: Abaqus/CAE 6.13-1
*Preprint, echo=NO, model=NO, history=NO, contact=NO
**
** PARTS
**
*Part, name=Part-1
*Node
      1,          30.,         160.,          1.5
      2,          30.,         160.,           0.
      3,           0.,         160.,           0.
      4,           0.,         160.,          1.5
      5,          30.,           0.,           0.
      6,           0.,           0.,           0.
      7,           0.,           0.,          1.5
      8,          30.,           0.,          1.5
      9,          30.,          80.,          1.5
     10,         210.,           0.,          1.5
     11,         210.,           0.,           0.
     12,         240.,           0.,           0.
     13,         240.,           0.,          1.5
     14,         210.,         160.,           0.
     15,         240.,         160.,           0.
     16,         240.,         160.,          1.5
     17,         210.,         160.,          1.5
     18,         210.,          80.,          1.5
     19,         175.,          80.,          1.5
     20,         120.,          25.,          1.5
** ... 11296 like lines cut
*Element, type=SC8R
  1,  144,  224, 1898, 1527,    1,    2,   38,   51
  2, 1527, 1898, 1899, 1528,   51,   38,   39,   50
  3, 1528, 1899, 1900, 1529,   50,   39,   40,   49
  4, 1529, 1900, 1901, 1530,   49,   40,   41,   48
  5, 1530, 1901, 1902, 1531,   48,   41,   42,   47
  6, 1531, 1902, 1903, 1532,   47,   42,   43,   46
  7, 1532, 1903, 1904, 1533,   46,   43,   44,   45
  8, 1533, 1904,  223,   66,   45,   44,    3,    4
  9,  143,  225, 1905, 1534,  144,  224, 1898, 1527
 10, 1534, 1905, 1906, 1535, 1527, 1898, 1899, 1528
 11, 1535, 1906, 1907, 1536, 1528, 1899, 1900, 1529
 12, 1536, 1907, 1908, 1537, 1529, 1900, 1901, 1530
 13, 1537, 1908, 1909, 1538, 1530, 1901, 1902, 1531
 14, 1538, 1909, 1910, 1539, 1531, 1902, 1903, 1532
 15, 1539, 1910, 1911, 1540, 1532, 1903, 1904, 1533
 16, 1540, 1911,  222,   67, 1533, 1904,  223,   66
 17,  142,  226, 1912, 1541,  143,  225, 1905, 1534
 18, 1541, 1912, 1913, 1542, 1534, 1905, 1906, 1535
 19, 1542, 1913, 1914, 1543, 1535, 1906, 1907, 1536
 20, 1543, 1914, 1915, 1544, 1536, 1907, 1908, 1537
** ... 5433 like lines cut
*Nset, nset=geometry-fixed
    1,    2,    3,    4,    5,    6,    7,    8,    9,   38,   39,   40,   41,   42,   43,   44
   45,   46,   47,   48,   49,   50,   51,   52,   53,   54,   55,   56,   57,   58,   59,   60
   61,   62,   63,   64,   65,   66,   67,   68,   69,   70,   71,   72,   73,   74,   75,   76
   77,   78,   79,   80,   81,   82,   83,   84,   85,   86,   87,   88,   89,   90,   91,   92
   93,   94,   95,   96,   97,   98,   99,  100,  101,  102,  103,  104,  105,  106,  107,  108
  109,  110,  111,  112,  113,  114,  115,  116,  117,  118,  119,  120,  121,  122,  123,  124
  125,  126,  127,  128,  129,  130,  131,  132,  133,  134,  135,  136,  137,  138,  139,  140
  141,  142,  143,  144,  145,  146,  147,  148,  149,  150,  151,  152,  153,  154,  155,  156
  157,  158,  159,  160,  161,  162,  163,  164,  165,  166,  167,  168,  169,  170,  171,  172
  173,  174,  175,  176,  177,  178,  179,  180,  181,  182,  183,  184,  185,  186,  187,  188
  189,  190,  191,  192,  193,  194,  195,  196,  197,  198,  199,  200,  201,  202,  203,  204
  205,  206,  207,  208,  209,  210,  211,  212,  213,  214,  215,  216,  217,  218,  219,  220
  221,  222,  223,  224,  225,  226,  227,  228,  229,  230,  231,  232,  233,  234,  235,  236
  237,  238,  239,  240,  241,  242,  243,  244,  245,  246,  247,  248,  249,  250,  251,  252
  253,  254,  255,  256,  257,  258,  259,  260,  261,  262,  263,  264,  265,  266,  267,  268
  269,  270,  271,  272,  273,  274,  275,  276, 1527, 1528, 1529, 1530, 1531, 1532, 1533, 1534
 1535, 1536, 1537, 1538, 1539, 1540, 1541, 1542, 1543, 1544, 1545, 1546, 1547, 1548, 1549, 1550
 1551, 1552, 1553, 1554, 1555, 1556, 1557, 1558, 1559, 1560, 1561, 1562, 1563, 1564, 1565, 1566
 1567, 1568, 1569, 1570, 1571, 1572, 1573, 1574, 1575, 1576, 1577, 1578, 1579, 1580, 1581, 1582
 1583, 1584, 1585, 1586, 1587, 1588, 1589, 1590, 1591, 1592, 1593, 1594, 1595, 1596, 1597, 1598
** ... 42 like lines cut
*Elset, elset=geometry-fixed, generate
   1,  432,    1
*Nset, nset=geometry-load
   10,   11,   12,   13,   14,   15,   16,   17,   18,  277,  278,  279,  280,  281,  282,  283
  284,  285,  286,  287,  288,  289,  290,  291,  292,  293,  294,  295,  296,  297,  298,  299
  300,  301,  302,  303,  304,  305,  306,  307,  308,  309,  310,  311,  312,  313,  314,  315
  316,  317,  318,  319,  320,  321,  322,  323,  324,  325,  326,  327,  328,  329,  330,  331
  332,  333,  334,  335,  336,  337,  338,  339,  340,  341,  342,  343,  344,  345,  346,  347
  348,  349,  350,  351,  352,  353,  354,  355,  356,  357,  358,  359,  360,  361,  362,  363
  364,  365,  366,  367,  368,  369,  370,  371,  372,  373,  374,  375,  376,  377,  378,  379
  380,  381,  382,  383,  384,  385,  386,  387,  388,  389,  390,  391,  392,  393,  394,  395
  396,  397,  398,  399,  400,  401,  402,  403,  404,  405,  406,  407,  408,  409,  410,  411
  412,  413,  414,  415,  416,  417,  418,  419,  420,  421,  422,  423,  424,  425,  426,  427
  428,  429,  430,  431,  432,  433,  434,  435,  436,  437,  438,  439,  440,  441,  442,  443
  444,  445,  446,  447,  448,  449,  450,  451,  452,  453,  454,  455,  456,  457,  458,  459
  460,  461,  462,  463,  464,  465,  466,  467,  468,  469,  470,  471,  472,  473,  474,  475
  476,  477,  478,  479,  480,  481,  482,  483,  484,  485,  486,  487,  488,  489,  490,  491
  492,  493,  494,  495,  496,  497,  498,  499,  500,  501,  502,  503,  504,  505,  506,  507
  508,  509,  510,  511,  512,  513,  514,  515, 2269, 2270, 2271, 2272, 2273, 2274, 2275, 2276
 2277, 2278, 2279, 2280, 2281, 2282, 2283, 2284, 2285, 2286, 2287, 2288, 2289, 2290, 2291, 2292
 2293, 2294, 2295, 2296, 2297, 2298, 2299, 2300, 2301, 2302, 2303, 2304, 2305, 2306, 2307, 2308
 2309, 2310, 2311, 2312, 2313, 2314, 2315, 2316, 2317, 2318, 2319, 2320, 2321, 2322, 2323, 2324
 2325, 2326, 2327, 2328, 2329, 2330, 2331, 2332, 2333, 2334, 2335, 2336, 2337, 2338, 2339, 2340
** ... 42 like lines cut
*Elset, elset=geometry-load, generate
 433,  864,    1
*Elset, elset=element-fixed, generate
   1,  432,    1
*Nset, nset=node-fixed
    1,    2,    3,    4,    5,    6,    7,    8,    9,   38,   39,   40,   41,   42,   43,   44
   45,   46,   47,   48,   49,   50,   51,   52,   53,   54,   55,   56,   57,   58,   59,   60
   61,   62,   63,   64,   65,   66,   67,   68,   69,   70,   71,   72,   73,   74,   75,   76
   77,   78,   79,   80,   81,   82,   83,   84,   85,   86,   87,   88,   89,   90,   91,   92
   93,   94,   95,   96,   97,   98,   99,  100,  101,  102,  103,  104,  105,  106,  107,  108
  109,  110,  111,  112,  113,  114,  115,  116,  117,  118,  119,  120,  121,  122,  123,  124
  125,  126,  127,  128,  129,  130,  131,  132,  133,  134,  135,  136,  137,  138,  139,  140
  141,  142,  143,  144,  145,  146,  147,  148,  149,  150,  151,  152,  153,  154,  155,  156
  157,  158,  159,  160,  161,  162,  163,  164,  165,  166,  167,  168,  169,  170,  171,  172
  173,  174,  175,  176,  177,  178,  179,  180,  181,  182,  183,  184,  185,  186,  187,  188
  189,  190,  191,  192,  193,  194,  195,  196,  197,  198,  199,  200,  201,  202,  203,  204
  205,  206,  207,  208,  209,  210,  211,  212,  213,  214,  215,  216,  217,  218,  219,  220
  221,  222,  223,  224,  225,  226,  227,  228,  229,  230,  231,  232,  233,  234,  235,  236
  237,  238,  239,  240,  241,  242,  243,  244,  245,  246,  247,  248,  249,  250,  251,  252
  253,  254,  255,  256,  257,  258,  259,  260,  261,  262,  263,  264,  265,  266,  267,  268
  269,  270,  271,  272,  273,  274,  275,  276, 1527, 1528, 1529, 1530, 1531, 1532, 1533, 1534
 1535, 1536, 1537, 1538, 1539, 1540, 1541, 1542, 1543, 1544, 1545, 1546, 1547, 1548, 1549, 1550
 1551, 1552, 1553, 1554, 1555, 1556, 1557, 1558, 1559, 1560, 1561, 1562, 1563, 1564, 1565, 1566
 1567, 1568, 1569, 1570, 1571, 1572, 1573, 1574, 1575, 1576, 1577, 1578, 1579, 1580, 1581, 1582
 1583, 1584, 1585, 1586, 1587, 1588, 1589, 1590, 1591, 1592, 1593, 1594, 1595, 1596, 1597, 1598
** ... 42 like lines cut
*Elset, elset=element-load, generate
 433,  864,    1
*Nset, nset=node-load
   10,   11,   12,   13,   14,   15,   16,   17,   18,  277,  278,  279,  280,  281,  282,  283
  284,  285,  286,  287,  288,  289,  290,  291,  292,  293,  294,  295,  296,  297,  298,  299
  300,  301,  302,  303,  304,  305,  306,  307,  308,  309,  310,  311,  312,  313,  314,  315
  316,  317,  318,  319,  320,  321,  322,  323,  324,  325,  326,  327,  328,  329,  330,  331
  332,  333,  334,  335,  336,  337,  338,  339,  340,  341,  342,  343,  344,  345,  346,  347
  348,  349,  350,  351,  352,  353,  354,  355,  356,  357,  358,  359,  360,  361,  362,  363
  364,  365,  366,  367,  368,  369,  370,  371,  372,  373,  374,  375,  376,  377,  378,  379
  380,  381,  382,  383,  384,  385,  386,  387,  388,  389,  390,  391,  392,  393,  394,  395
  396,  397,  398,  399,  400,  401,  402,  403,  404,  405,  406,  407,  408,  409,  410,  411
  412,  413,  414,  415,  416,  417,  418,  419,  420,  421,  422,  423,  424,  425,  426,  427
  428,  429,  430,  431,  432,  433,  434,  435,  436,  437,  438,  439,  440,  441,  442,  443
  444,  445,  446,  447,  448,  449,  450,  451,  452,  453,  454,  455,  456,  457,  458,  459
  460,  461,  462,  463,  464,  465,  466,  467,  468,  469,  470,  471,  472,  473,  474,  475
  476,  477,  478,  479,  480,  481,  482,  483,  484,  485,  486,  487,  488,  489,  490,  491
  492,  493,  494,  495,  496,  497,  498,  499,  500,  501,  502,  503,  504,  505,  506,  507
  508,  509,  510,  511,  512,  513,  514,  515, 2269, 2270, 2271, 2272, 2273, 2274, 2275, 2276
 2277, 2278, 2279, 2280, 2281, 2282, 2283, 2284, 2285, 2286, 2287, 2288, 2289, 2290, 2291, 2292
 2293, 2294, 2295, 2296, 2297, 2298, 2299, 2300, 2301, 2302, 2303, 2304, 2305, 2306, 2307, 2308
 2309, 2310, 2311, 2312, 2313, 2314, 2315, 2316, 2317, 2318, 2319, 2320, 2321, 2322, 2323, 2324
 2325, 2326, 2327, 2328, 2329, 2330, 2331, 2332, 2333, 2334, 2335, 2336, 2337, 2338, 2339, 2340
** ... 42 like lines cut
** Region: (CompositeLayup-1-1: Generated From Layup), (Controls:EC-1)
*Elset, elset=CompositeLayup-1-1, generate
    1,  5453,     1
** Section: CompositeLayup-1-1
*Shell Section, elset=CompositeLayup-1-1, composite, controls=EC-1, poisson=0.3, thickness modulus=9600., stack direction=3, 
layup=CompositeLayup-1
0.158, 3, Material-1, 0., Ply-1
0.158, 3, Material-1, 90., Ply-2
0.158, 3, Material-1, 0., Ply-3
0.158, 3, Material-1, 90., Ply-4
0.158, 3, Material-1, 0., Ply-5
0.158, 3, Material-1, 90., Ply-6
0.158, 3, Material-1, 0., Ply-7
0.158, 3, Material-1, 90., Ply-8
0.158, 3, Material-1, 0., Ply-9
0.158, 3, Material-1, 90., Ply-10
*Transverse Shear
8558., 4792., 0.
*Hourglass Stiffness
1., , 1., 0.
*End Part
**  
**
** ASSEMBLY
**
*Assembly, name=Assembly
**  
*Instance, name=Part-1-1, part=Part-1
*End Instance
**  
*Node
      1,         240.,          80.,         0.75
*Nset, nset=rp
 1,
*Nset, nset=_PickedSet14, internal
 1,
*Elset, elset=_s_Surf-1_S6, internal, instance=Part-1-1, generate
 433,  864,    1
*Surface, type=ELEMENT, name=s_Surf-1
_s_Surf-1_S6, S6
** Constraint: Constraint-1
*Equation
2
Part-1-1.node-load, 1, 1.
rp, 1, -1.
*End Assembly
** 
** ELEMENT CONTROLS
** 
*Section Controls, name=EC-1, hourglass=STIFFNESS, VISCOSITY=1.
1., 1., 1.
*Amplitude, name=disp-amp, definition=SMOOTH STEP
             0.,              0.,             60.,              1.
** 
** MATERIALS
** 
*Material, name=Material-1
*Density
1.,
*Depvar
     16,
*User Material, constants=14, unsymm
127700.,  9670.,  6500.,  3640.,    0.3,    0.3,  1500.,  764.3
    36.,   160.,    60.,    5,    60., 0.0005
** ----------------------------------------------------------------
** 
** STEP: Step-1
** 
*Step, name=Step-1, nlgeom=NO, inc=4000
*Dynamic,application=QUASI-STATIC,initial=NO
0.06,60.,1e-05
** 
** BOUNDARY CONDITIONS
** 
** Name: fixed end Type: Symmetry/Antisymmetry/Encastre
*Boundary
Part-1-1.geometry-fixed, ENCASTRE
** Name: xload Type: Displacement/Rotation
*Boundary, amplitude=disp-amp
_PickedSet14, 1, 1, 4.
_PickedSet14, 2, 2
_PickedSet14, 3, 3
_PickedSet14, 4, 4
_PickedSet14, 5, 5
_PickedSet14, 6, 6
** 
** OUTPUT REQUESTS
** 
*Restart, write, number interval=1, time marks=NO
** 
** FIELD OUTPUT: F-Output-1
** 
*Output, field, frequency=1
*Element Output, elset=Part-1-1.CompositeLayup-1-1, directions=YES
2, 5, 8, 11, 14, 17, 20, 23, 26, 29
E, S, SDV
** 
** HISTORY OUTPUT: H-Output-1
** 
*Output, history, frequency=1
*Node Output, nset=rp
RF1, U1, U2, U3
*End Step
